/*--------------------------------*- C++ -*----------------------------------*\
| =========                 |                                                 |
| \\      /  F ield         | OpenFOAM: The Open Source CFD Toolbox           |
|  \\    /   O peration     | Version:  v2412                                 |
|   \\  /    A nd           | Website:  www.openfoam.com                      |
|    \\/     M anipulation  |                                                 |
\*---------------------------------------------------------------------------*/
FoamFile
{
    version     2.0;
    format      ascii;
    class       volScalarField;
    object      T;
}
// * * * * * * * * * * * * * * * * * * * * * * * * * * * * * * * * * * * * * //

dimensions      [0 0 0 1 0 0 0];  // Temperature in Kelvin

internalField   uniform 300;

boundaryField
{
    left
    {
        type            fixedValue;
        value           uniform 400;  // Hot side
    }
    
    right
    {
        type            fixedValue;
        value           uniform 200;  // Cold side
    }
    
    top
    {
        type            fixedValue;  
        value           uniform 0;
    }
    
    bottom
    {
        type            zeroGradient;  // Insulated
    }
    
    frontAndBack
    {
        type            empty;  // 2D simulation
    }
}


// ************************************************************************* //
